Alp_mod/OutputDSS.dss
Clear

New Circuit.Alp_mod_Reduced bus1=SourceBus basekv=12 R1=0.063 X1=0.5495 R0=0.0152 X0=1.3295 Sequence=pos
New Line.0355_03552 Phases=3 bus1=0355.1.2.3 bus2=03552.1.2.3 Units=km Length=0.054879 Rmatrix=[0.12456            0.03762            0.03762| 0.03762            0.12456            0.03762| 0.03762            0.03762            0.12456|] Xmatrix=[ 0.6121            0.23447            0.23447| 0.23447             0.6121            0.23447| 0.23447            0.23447             0.6121|] Cmatrix=[0                  0                  0| 0                  0                  0| 0                  0                  0|]
New Line.03552_03553 Phases=3 bus1=03552.1.2.3 bus2=03553.1.2.3 Units=km Length=0.052578 Rmatrix=[       0.13301     0.033395942029     0.033395942029| 0.033395942029            0.13301     0.033395942029| 0.033395942029     0.033395942029            0.13301|] Xmatrix=[0.614982608696     0.233028695652     0.233028695652| 0.233028695652     0.614982608696     0.233028695652| 0.233028695652     0.233028695652     0.614982608696|] Cmatrix=[0                  0                  0| 0                  0                  0| 0                  0                  0|]
New Line.035510_035512 Phases=3 bus1=035510.1.2.3 bus2=035512.1.2.3 Units=km Length=0.091714 Rmatrix=[ 0.13353           0.033136           0.033136| 0.033136            0.13353           0.033136| 0.033136           0.033136            0.13353|] Xmatrix=[0.61516            0.23294            0.23294| 0.23294            0.61516            0.23294| 0.23294            0.23294            0.61516|] Cmatrix=[0                  0                  0| 0                  0                  0| 0                  0                  0|]
New Line.035510_035510a Phases=1 bus1=035510.1 bus2=035510a.1 Units=km Length=0.003048 Rmatrix=0.086942 Xmatrix=0.37762 Cmatrix=0
New Line.035512_03551201 Phases=3 bus1=035512.1.2.3 bus2=03551201.1.2.3 Units=km Length=0.025237 Rmatrix=[ 1.1475            0.13703            0.13703| 0.13703             1.1475            0.13703| 0.13703            0.13703             1.1475|] Xmatrix=[0.87981            0.35619            0.35619| 0.35619            0.87981            0.35619| 0.35619            0.35619            0.87981|] Cmatrix=[0                  0                  0| 0                  0                  0| 0                  0                  0|]
New Line.035512_035513 Phases=3 bus1=035512.1.2.3 bus2=035513.1.2.3 Units=km Length=0.12293 Rmatrix=[ 0.13353           0.033136           0.033136| 0.033136            0.13353           0.033136| 0.033136           0.033136            0.13353|] Xmatrix=[0.61516            0.23294            0.23294| 0.23294            0.61516            0.23294| 0.23294            0.23294            0.61516|] Cmatrix=[0                  0                  0| 0                  0                  0| 0                  0                  0|]
New Line.035513_03551306 Phases=3 bus1=035513.1.2.3 bus2=03551306.1.2.3 Units=km Length=0.06855 Rmatrix=[        1.0822              0.139     0.139000000001|          0.139             1.0822     0.138999999999| 0.139000000001     0.138999999999             1.0822|] Xmatrix=[0.838689999999            0.34853            0.34853|        0.34853     0.838689999999            0.34853|        0.34853            0.34853            0.83869|] Cmatrix=[0                  0                  0| 0                  0                  0| 0                  0                  0|]
New Line.035513_035515 Phases=3 bus1=035513.1.2.3 bus2=035515.1.2.3 Units=km Length=0.24109 Rmatrix=[  0.2161           0.056321           0.056321| 0.056321             0.2161           0.056321| 0.056321           0.056321             0.2161|] Xmatrix=[ 0.6425            0.24322            0.24322| 0.24322             0.6425            0.24322| 0.24322            0.24322             0.6425|] Cmatrix=[0                  0                  0| 0                  0                  0| 0                  0                  0|]
New Line.035513_03551301 Phases=2 bus1=035513.1.3 bus2=03551301.1.3 Units=km Length=0.071384 Rmatrix=[1.57127210131      0.13414469573| 0.13414469573      1.57127210131|] Xmatrix=[0.890157751876     0.387848823265| 0.387848823265     0.890157751877|] Cmatrix=[0                  0| 0                  0|]
New Line.035513_03551394a Phases=2 bus1=035513.2.3 bus2=03551394a.2.3 Units=km Length=0.094031 Rmatrix=[1.58681339431      0.13518161149| 0.13518161149      1.58681339431|] Xmatrix=[0.893144785018     0.389496494029| 0.389496494029     0.893144785018|] Cmatrix=[0                  0| 0                  0|]
New Line.03551306_03551393 Phases=2 bus1=03551306.1.3 bus2=03551393.1.3 Units=km Length=0.091928 Rmatrix=[ 1.6358            0.13845| 0.13845             1.6358|] Xmatrix=[0.90256            0.39469| 0.39469            0.90256|] Cmatrix=[0                  0| 0                  0|]
New Line.03551306_03551306a Phases=3 bus1=03551306.1.2.3 bus2=03551306a.1.2.3 Units=km Length=0.003048 Rmatrix=[0.12456            0.03762            0.03762| 0.03762            0.12456            0.03762| 0.03762            0.03762            0.12456|] Xmatrix=[ 0.6121            0.23447            0.23447| 0.23447             0.6121            0.23447| 0.23447            0.23447             0.6121|] Cmatrix=[0                  0                  0| 0                  0                  0| 0                  0                  0|]
New Line.03551306a_03551308 Phases=3 bus1=03551306a.1.2.3 bus2=03551308.1.2.3 Units=km Length=0.195716 Rmatrix=[ 1.08220000005     0.139000000002     0.138999999996| 0.139000000002             1.0822     0.138999999997| 0.138999999996     0.138999999997      1.08219999999|] Xmatrix=[0.838689999996     0.348530000003     0.348530000003| 0.348530000003            0.83869     0.348530000001| 0.348530000003     0.348530000001     0.838690000005|] Cmatrix=[0                  0                  0| 0                  0                  0| 0                  0                  0|]
New Line.035515_035516 Phases=3 bus1=035515.1.2.3 bus2=035516.1.2.3 Units=km Length=0.086929 Rmatrix=[  0.2161           0.056321           0.056321| 0.056321             0.2161           0.056321| 0.056321           0.056321             0.2161|] Xmatrix=[ 0.6425            0.24322            0.24322| 0.24322             0.6425            0.24322| 0.24322            0.24322             0.6425|] Cmatrix=[0                  0                  0| 0                  0                  0| 0                  0                  0|]
New Line.03551301_03551305 Phases=2 bus1=03551301.1.3 bus2=03551305.1.3 Units=km Length=0.10449 Rmatrix=[ 1.6358            0.13845| 0.13845             1.6358|] Xmatrix=[0.90256            0.39469| 0.39469     0.902559999999|] Cmatrix=[0                  0| 0                  0|]
New Line.03551301_03551301a Phases=2 bus1=03551301.1.3 bus2=03551301a.1.3 Units=km Length=0.003048 Rmatrix=[0.12456            0.03762| 0.03762            0.12456|] Xmatrix=[ 0.6121            0.23447| 0.23447             0.6121|] Cmatrix=[0                  0| 0                  0|]
New Line.03551301a_03551304 Phases=2 bus1=03551301a.1.3 bus2=03551304.1.3 Units=km Length=0.161541 Rmatrix=[0.71544            0.12194| 0.12194            0.71544|] Xmatrix=[  0.778            0.30523| 0.30523              0.778|] Cmatrix=[0                  0| 0                  0|]
New Line.03551308_03551314 Phases=3 bus1=03551308.1.2.3 bus2=03551314.1.2.3 Units=km Length=0.13061 Rmatrix=[1.0822              0.139              0.139|  0.139             1.0822              0.139|  0.139              0.139             1.0822|] Xmatrix=[0.83869            0.34853            0.34853| 0.34853            0.83869            0.34853| 0.34853            0.34853            0.83869|] Cmatrix=[0                  0                  0| 0                  0                  0| 0                  0                  0|]
New Line.03551308_03551308a Phases=2 bus1=03551308.1.3 bus2=03551308a.1.3 Units=km Length=0.003048 Rmatrix=[0.12456            0.03762| 0.03762            0.12456|] Xmatrix=[ 0.6121            0.23447| 0.23447             0.6121|] Cmatrix=[0                  0| 0                  0|]
New Line.03551314_03551318 Phases=3 bus1=03551314.1.2.3 bus2=03551318.1.2.3 Units=km Length=0.400574 Rmatrix=[0.916758087145     0.126643447503     0.126643447503| 0.126643447503     0.916758087145     0.126643447503| 0.126643447503     0.126643447503     0.916758087145|] Xmatrix=[0.811947822275     0.329149853261     0.329149853261| 0.329149853261     0.811947822275     0.329149853261| 0.329149853261     0.329149853261     0.811947822275|] Cmatrix=[0                  0                  0| 0                  0                  0| 0                  0                  0|]
New Line.03551314_03551367 Phases=2 bus1=03551314.2.3 bus2=03551367.2.3 Units=km Length=0.05968 Rmatrix=[ 1.6358            0.13845| 0.13845             1.6358|] Xmatrix=[0.90256            0.39469| 0.39469            0.90256|] Cmatrix=[0                  0| 0                  0|]
New Line.03551308a_03551311 Phases=2 bus1=03551308a.1.3 bus2=03551311.1.3 Units=km Length=0.152095 Rmatrix=[ 1.12560682205     0.137690483316| 0.137690483316      1.12560682205|] Xmatrix=[0.866023668036     0.353621826293| 0.353621826293     0.866023668037|] Cmatrix=[0                  0| 0                  0|]
New Line.03551367_03551368 Phases=2 bus1=03551367.2.3 bus2=03551368.2.3 Units=km Length=0.062423 Rmatrix=[ 1.56200893709     0.133526657001| 0.133526657001      1.56200893709|] Xmatrix=[0.888377373724     0.386866752799| 0.386866752799     0.888377373724|] Cmatrix=[0                  0| 0                  0|]
New Line.03551318_03551321 Phases=3 bus1=03551318.1.2.3 bus2=03551321.1.2.3 Units=km Length=0.202539 Rmatrix=[1.0822              0.139              0.139|  0.139             1.0822              0.139|  0.139              0.139             1.0822|] Xmatrix=[0.83869            0.34853            0.34853| 0.34853            0.83869            0.34853| 0.34853            0.34853            0.83869|] Cmatrix=[0                  0                  0| 0                  0                  0| 0                  0                  0|]
New Line.03551318_03551365 Phases=2 bus1=03551318.1.3 bus2=03551365.1.3 Units=km Length=0.060046 Rmatrix=[1.0822              0.139|  0.139             1.0822|] Xmatrix=[0.83869            0.34853| 0.34853            0.83869|] Cmatrix=[0                  0| 0                  0|]
New Line.03551321_03551322 Phases=3 bus1=03551321.1.2.3 bus2=03551322.1.2.3 Units=km Length=0.076871 Rmatrix=[1.0822              0.139              0.139|  0.139             1.0822              0.139|  0.139              0.139             1.0822|] Xmatrix=[0.83869            0.34853            0.34853| 0.34853            0.83869            0.34853| 0.34853            0.34853            0.83869|] Cmatrix=[0                  0                  0| 0                  0                  0| 0                  0                  0|]
New Line.03551322_03551323 Phases=3 bus1=03551322.1.2.3 bus2=03551323.1.2.3 Units=km Length=0.06602 Rmatrix=[1.0822              0.139              0.139|  0.139             1.0822              0.139|  0.139              0.139             1.0822|] Xmatrix=[0.83869            0.34853            0.34853| 0.34853            0.83869            0.34853| 0.34853            0.34853            0.83869|] Cmatrix=[0                  0                  0| 0                  0                  0| 0                  0                  0|]
New Line.03551323_03551324 Phases=3 bus1=03551323.1.2.3 bus2=03551324.1.2.3 Units=km Length=0.048097 Rmatrix=[1.0822              0.139              0.139|  0.139             1.0822              0.139|  0.139              0.139             1.0822|] Xmatrix=[0.83869            0.34853            0.34853| 0.34853            0.83869            0.34853| 0.34853            0.34853            0.83869|] Cmatrix=[0                  0                  0| 0                  0                  0| 0                  0                  0|]
New Line.03551323_03551327 Phases=2 bus1=03551323.1.2 bus2=03551327.1.2 Units=km Length=0.116586 Rmatrix=[ 1.38758552485     0.138696600363| 0.138696600363      1.38758552485|] Xmatrix=[0.873922972308     0.373993504023| 0.373993504023     0.873922972312|] Cmatrix=[0                  0| 0                  0|]
New Line.03551323_03551348 Phases=2 bus1=03551323.2.3 bus2=03551348.2.3 Units=km Length=0.035448 Rmatrix=[ 1.6358            0.13845| 0.13845             1.6358|] Xmatrix=[0.90256            0.39469| 0.39469            0.90256|] Cmatrix=[0                  0| 0                  0|]
New Line.03551324_03551325 Phases=3 bus1=03551324.1.2.3 bus2=03551325.1.2.3 Units=km Length=0.22424 Rmatrix=[1.0822              0.139              0.139|  0.139             1.0822              0.139|  0.139              0.139             1.0822|] Xmatrix=[0.83869            0.34853            0.34853| 0.34853            0.83869            0.34853| 0.34853            0.34853            0.83869|] Cmatrix=[0                  0                  0| 0                  0                  0| 0                  0                  0|]
New Line.03551348_03551350 Phases=2 bus1=03551348.2.3 bus2=03551350.2.3 Units=km Length=0.139659 Rmatrix=[ 1.6358            0.13845| 0.13845             1.6358|] Xmatrix=[0.90256            0.39469| 0.39469            0.90256|] Cmatrix=[0                  0| 0                  0|]
New Line.03551327_03551333 Phases=2 bus1=03551327.1.2 bus2=03551333.1.2 Units=km Length=0.075621 Rmatrix=[        1.0822     0.139000000001| 0.139000000001             1.0822|] Xmatrix=[0.838689999997     0.348529999999| 0.348529999999            0.83869|] Cmatrix=[0                  0| 0                  0|]
New Line.03551327_03551328 Phases=1 bus1=03551327.1 bus2=03551328.1 Units=km Length=0.003048 Rmatrix=0.086942 Xmatrix=0.37762 Cmatrix=0
New Line.03551333_03551336 Phases=2 bus1=03551333.1.2 bus2=03551336.1.2 Units=km Length=0.083454 Rmatrix=[ 1.1475            0.13703| 0.13703             1.1475|] Xmatrix=[0.87981            0.35619| 0.35619            0.87981|] Cmatrix=[0                  0| 0                  0|]
New Line.03551333_03551346 Phases=2 bus1=03551333.1.2 bus2=03551346.1.2 Units=km Length=0.031791 Rmatrix=[ 1.1475            0.13703| 0.13703             1.1475|] Xmatrix=[0.87981            0.35619| 0.35619            0.87981|] Cmatrix=[0                  0| 0                  0|]
New Line.03551336_03551337 Phases=2 bus1=03551336.1.2 bus2=03551337.1.2 Units=km Length=0.012984 Rmatrix=[ 1.1475            0.13703| 0.13703             1.1475|] Xmatrix=[0.87981            0.35619| 0.35619            0.87981|] Cmatrix=[0                  0| 0                  0|]
New Line.03551336_03551340 Phases=2 bus1=03551336.1.2 bus2=03551340.1.2 Units=km Length=0.138836 Rmatrix=[ 1.1475            0.13703| 0.13703             1.1475|] Xmatrix=[0.87981            0.35619| 0.35619            0.87981|] Cmatrix=[0                  0| 0                  0|]
New Line.03551336_03551343 Phases=2 bus1=03551336.1.2 bus2=03551343.1.2 Units=km Length=0.129696 Rmatrix=[ 1.1475            0.13703| 0.13703             1.1475|] Xmatrix=[0.87981            0.35619| 0.35619            0.87981|] Cmatrix=[0                  0| 0                  0|]
New Line.03551340_03551341 Phases=2 bus1=03551340.1.2 bus2=03551341.1.2 Units=km Length=0.058247 Rmatrix=[ 1.1475            0.13703| 0.13703             1.1475|] Xmatrix=[0.87981            0.35619| 0.35619            0.87981|] Cmatrix=[0                  0| 0                  0|]
New Line.03551350_03551356 Phases=2 bus1=03551350.2.3 bus2=03551356.2.3 Units=km Length=0.067635 Rmatrix=[ 1.6358            0.13845| 0.13845             1.6358|] Xmatrix=[0.90256            0.39469| 0.39469            0.90256|] Cmatrix=[0                  0| 0                  0|]
New Line.03551350_03551351 Phases=2 bus1=03551350.2.3 bus2=03551351.2.3 Units=km Length=0.065532 Rmatrix=[0.687957209302     0.118018139535| 0.118018139535     0.687957209302|] Xmatrix=[ 0.77028372093     0.301938837209| 0.301938837209      0.77028372093|] Cmatrix=[0                  0| 0                  0|]
New Line.03551356_03551357 Phases=2 bus1=03551356.2.3 bus2=03551357.2.3 Units=km Length=0.034412 Rmatrix=[ 1.6358            0.13845| 0.13845             1.6358|] Xmatrix=[0.90256            0.39469| 0.39469            0.90256|] Cmatrix=[0                  0| 0                  0|]
New Line.03551357_03551359 Phases=2 bus1=03551357.2.3 bus2=03551359.2.3 Units=km Length=0.084064 Rmatrix=[ 1.6358            0.13845| 0.13845             1.6358|] Xmatrix=[0.90256            0.39469| 0.39469            0.90256|] Cmatrix=[0                  0| 0                  0|]
New Line.03551351_03551353 Phases=2 bus1=03551351.2.3 bus2=03551353.2.3 Units=km Length=0.17526 Rmatrix=[0.71544            0.12194| 0.12194            0.71544|] Xmatrix=[  0.778            0.30523| 0.30523              0.778|] Cmatrix=[0                  0| 0                  0|]
New Line.03551353_03551354 Phases=2 bus1=03551353.2.3 bus2=03551354.2.3 Units=km Length=0.050597 Rmatrix=[0.71544            0.12194| 0.12194            0.71544|] Xmatrix=[  0.778            0.30523| 0.30523              0.778|] Cmatrix=[0                  0| 0                  0|]
New Line.03551354_03551355 Phases=2 bus1=03551354.2.3 bus2=03551355.2.3 Units=km Length=0.003048 Rmatrix=[0.71544            0.12194| 0.12194            0.71544|] Xmatrix=[  0.778            0.30523| 0.30523              0.778|] Cmatrix=[0                  0| 0                  0|]
New Line.03551359_03551361 Phases=2 bus1=03551359.2.3 bus2=03551361.2.3 Units=km Length=0.040965 Rmatrix=[ 1.6358            0.13845| 0.13845             1.6358|] Xmatrix=[0.90256            0.39469| 0.39469            0.90256|] Cmatrix=[0                  0| 0                  0|]
New Line.03551361_03551363 Phases=2 bus1=03551361.2.3 bus2=03551363.2.3 Units=km Length=0.119725 Rmatrix=[ 1.1475            0.13703| 0.13703             1.1475|] Xmatrix=[0.87981            0.35619| 0.35619            0.87981|] Cmatrix=[0                  0| 0                  0|]
New Line.03551368_03551370 Phases=2 bus1=03551368.2.3 bus2=03551370.2.3 Units=km Length=0.253962 Rmatrix=[ 1.6358            0.13845| 0.13845             1.6358|] Xmatrix=[0.90256            0.39469| 0.39469            0.90256|] Cmatrix=[0                  0| 0                  0|]
New Line.03551370_03551371 Phases=2 bus1=03551370.2.3 bus2=03551371.2.3 Units=km Length=0.05395 Rmatrix=[ 1.1475            0.13703| 0.13703             1.1475|] Xmatrix=[0.87981            0.35619| 0.35619            0.87981|] Cmatrix=[0                  0| 0                  0|]
New Line.03551370_03551390 Phases=2 bus1=03551370.2.3 bus2=03551390.2.3 Units=km Length=0.080863 Rmatrix=[ 1.1475            0.13703| 0.13703             1.1475|] Xmatrix=[0.87981            0.35619| 0.35619            0.87981|] Cmatrix=[0                  0| 0                  0|]
New Line.03551371_03551372 Phases=2 bus1=03551371.2.3 bus2=03551372.2.3 Units=km Length=0.032217 Rmatrix=[ 1.1475            0.13703| 0.13703             1.1475|] Xmatrix=[0.87981            0.35619| 0.35619            0.87981|] Cmatrix=[0                  0| 0                  0|]
New Line.03551371_03551389 Phases=2 bus1=03551371.2.3 bus2=03551389.2.3 Units=km Length=0.070378 Rmatrix=[ 1.1475            0.13703| 0.13703             1.1475|] Xmatrix=[0.87981            0.35619| 0.35619            0.87981|] Cmatrix=[0                  0| 0                  0|]
New Line.03551372_03551374 Phases=2 bus1=03551372.2.3 bus2=03551374.2.3 Units=km Length=0.129357 Rmatrix=[ 1.1475            0.13703| 0.13703             1.1475|] Xmatrix=[0.879810000001            0.35619|        0.35619     0.879810000001|] Cmatrix=[0                  0| 0                  0|]
New Line.03551372_03551387 Phases=2 bus1=03551372.2.3 bus2=03551387.2.3 Units=km Length=0.077572 Rmatrix=[ 1.1475            0.13703| 0.13703             1.1475|] Xmatrix=[0.87981            0.35619| 0.35619            0.87981|] Cmatrix=[0                  0| 0                  0|]
New Line.03551372_03551388 Phases=2 bus1=03551372.2.3 bus2=03551388.2.3 Units=km Length=0.013533 Rmatrix=[ 1.1475            0.13703| 0.13703             1.1475|] Xmatrix=[0.87981            0.35619| 0.35619            0.87981|] Cmatrix=[0                  0| 0                  0|]
New Line.03551374_03551375 Phases=2 bus1=03551374.2.3 bus2=03551375.2.3 Units=km Length=0.012253 Rmatrix=[ 1.1475            0.13703| 0.13703             1.1475|] Xmatrix=[0.87981            0.35619| 0.35619            0.87981|] Cmatrix=[0                  0| 0                  0|]
New Line.03551374_03551379 Phases=2 bus1=03551374.2.3 bus2=03551379.2.3 Units=km Length=0.104424 Rmatrix=[ 1.1475            0.13703| 0.13703             1.1475|] Xmatrix=[0.87981            0.35619| 0.35619            0.87981|] Cmatrix=[0                  0| 0                  0|]
New Line.03551379_03551381 Phases=2 bus1=03551379.2.3 bus2=03551381.2.3 Units=km Length=0.072024 Rmatrix=[ 1.1475            0.13703| 0.13703             1.1475|] Xmatrix=[0.87981            0.35619| 0.35619            0.87981|] Cmatrix=[0                  0| 0                  0|]
New Line.03551379_03551385a Phases=2 bus1=03551379.2.3 bus2=03551385a.2.3 Units=km Length=0.016429 Rmatrix=[0.957718447867     0.118586900603| 0.118586900603     0.957718447867|] Xmatrix=[0.830142942967     0.333607824578| 0.333607824578     0.830142942967|] Cmatrix=[0                  0| 0                  0|]
New Line.03551381_03551382 Phases=2 bus1=03551381.2.3 bus2=03551382.2.3 Units=km Length=0.032339 Rmatrix=[ 1.1475            0.13703| 0.13703             1.1475|] Xmatrix=[0.87981            0.35619| 0.35619            0.87981|] Cmatrix=[0                  0| 0                  0|]
New Line.03551382_03551383 Phases=2 bus1=03551382.2.3 bus2=03551383.2.3 Units=km Length=0.05523 Rmatrix=[ 1.1475            0.13703| 0.13703             1.1475|] Xmatrix=[0.879810000001            0.35619|        0.35619            0.87981|] Cmatrix=[0                  0| 0                  0|]
New Line.03551383_03551383a Phases=2 bus1=03551383.2.3 bus2=03551383a.2.3 Units=km Length=0.003048 Rmatrix=[0.12456            0.03762| 0.03762            0.12456|] Xmatrix=[ 0.6121            0.23447| 0.23447             0.6121|] Cmatrix=[0                  0| 0                  0|]
New Line.035516_035517 Phases=3 bus1=035516.1.2.3 bus2=035517.1.2.3 Units=km Length=0.024689 Rmatrix=[  0.2161           0.056321           0.056321| 0.056321             0.2161           0.056321| 0.056321           0.056321             0.2161|] Xmatrix=[ 0.6425            0.24322            0.24322| 0.24322             0.6425            0.24322| 0.24322            0.24322             0.6425|] Cmatrix=[0                  0                  0| 0                  0                  0| 0                  0                  0|]
New Line.035516_035516a Phases=2 bus1=035516.2.3 bus2=035516a.2.3 Units=km Length=0.003048 Rmatrix=[0.12456            0.03762| 0.03762            0.12456|] Xmatrix=[ 0.6121            0.23447| 0.23447             0.6121|] Cmatrix=[0                  0| 0                  0|]
New Line.035517_035518 Phases=3 bus1=035517.1.2.3 bus2=035518.1.2.3 Units=km Length=0.083454 Rmatrix=[  0.2161           0.056321           0.056321| 0.056321             0.2161           0.056321| 0.056321           0.056321             0.2161|] Xmatrix=[ 0.6425            0.24322            0.24322| 0.24322             0.6425            0.24322| 0.24322            0.24322             0.6425|] Cmatrix=[0                  0                  0| 0                  0                  0| 0                  0                  0|]
New Line.035517_03551703 Phases=2 bus1=035517.1.3 bus2=03551703.1.3 Units=km Length=0.130027 Rmatrix=[ 1.05975168757     0.136623522499| 0.136623522499      1.05975168757|] Xmatrix=[ 0.83337843917     0.345856287002| 0.345856287002      0.83337843917|] Cmatrix=[0                  0| 0                  0|]
New Line.035516a_03551604 Phases=2 bus1=035516a.2.3 bus2=03551604.2.3 Units=km Length=0.073304 Rmatrix=[ 1.1475            0.13703| 0.13703             1.1475|] Xmatrix=[0.879809999999            0.35619|        0.35619            0.87981|] Cmatrix=[0                  0| 0                  0|]
New Line.035518_035520 Phases=3 bus1=035518.1.2.3 bus2=035520.1.2.3 Units=km Length=0.120914 Rmatrix=[  0.2161           0.056321           0.056321| 0.056321             0.2161           0.056321| 0.056321           0.056321             0.2161|] Xmatrix=[ 0.6425            0.24322            0.24322| 0.24322             0.6425            0.24322| 0.24322            0.24322             0.6425|] Cmatrix=[0                  0                  0| 0                  0                  0| 0                  0                  0|]
New Line.035518_03551803 Phases=2 bus1=035518.2.3 bus2=03551803.2.3 Units=km Length=0.153193 Rmatrix=[1.0822              0.139|  0.139             1.0822|] Xmatrix=[0.83869            0.34853| 0.34853            0.83869|] Cmatrix=[0                  0| 0                  0|]
New Line.03551703_03551704 Phases=2 bus1=03551703.1.3 bus2=03551704.1.3 Units=km Length=0.056175 Rmatrix=[ 1.1475            0.13703| 0.13703             1.1475|] Xmatrix=[0.87981            0.35619| 0.35619            0.87981|] Cmatrix=[0                  0| 0                  0|]
New Line.03551703_03551708 Phases=2 bus1=03551703.1.3 bus2=03551708.1.3 Units=km Length=0.11345 Rmatrix=[1.0822              0.139|  0.139             1.0822|] Xmatrix=[0.83869            0.34853| 0.34853            0.83869|] Cmatrix=[0                  0| 0                  0|]
New Line.03551704_03551705 Phases=2 bus1=03551704.1.3 bus2=03551705.1.3 Units=km Length=0.060015 Rmatrix=[ 1.1475            0.13703| 0.13703             1.1475|] Xmatrix=[0.87981            0.35619| 0.35619            0.87981|] Cmatrix=[0                  0| 0                  0|]
New Line.03551708_03551709 Phases=2 bus1=03551708.1.3 bus2=03551709.1.3 Units=km Length=0.044623 Rmatrix=[1.0822              0.139|  0.139             1.0822|] Xmatrix=[0.83869            0.34853| 0.34853            0.83869|] Cmatrix=[0                  0| 0                  0|]
New Line.03551708_03551715 Phases=2 bus1=03551708.1.3 bus2=03551715.1.3 Units=km Length=0.091166 Rmatrix=[1.0822              0.139|  0.139             1.0822|] Xmatrix=[0.83869            0.34853| 0.34853            0.83869|] Cmatrix=[0                  0| 0                  0|]
New Line.03551708_03551716 Phases=2 bus1=03551708.1.3 bus2=03551716.1.3 Units=km Length=0.052487 Rmatrix=[0.71544            0.12194| 0.12194            0.71544|] Xmatrix=[  0.778            0.30523| 0.30523              0.778|] Cmatrix=[0                  0| 0                  0|]
New Line.03551705_03551706 Phases=2 bus1=03551705.1.3 bus2=03551706.1.3 Units=km Length=0.044897 Rmatrix=[ 1.1475            0.13703| 0.13703             1.1475|] Xmatrix=[0.87981            0.35619| 0.35619            0.87981|] Cmatrix=[0                  0| 0                  0|]
New Line.03551709_03551710 Phases=2 bus1=03551709.1.3 bus2=03551710.1.3 Units=km Length=0.130458 Rmatrix=[ 0.70163477349     0.119969960907| 0.119969960907      0.70163477349|] Xmatrix=[0.774123938739     0.303576774594| 0.303576774594     0.774123938739|] Cmatrix=[0                  0| 0                  0|]
New Line.03551706_03551707 Phases=2 bus1=03551706.1.3 bus2=03551707.1.3 Units=km Length=0.003048 Rmatrix=[ 1.1475            0.13703| 0.13703             1.1475|] Xmatrix=[0.87981            0.35619| 0.35619            0.87981|] Cmatrix=[0                  0| 0                  0|]
New Line.03551710_03551711 Phases=2 bus1=03551710.1.3 bus2=03551711.1.3 Units=km Length=0.069494 Rmatrix=[0.71544            0.12194| 0.12194            0.71544|] Xmatrix=[  0.778            0.30523| 0.30523              0.778|] Cmatrix=[0                  0| 0                  0|]
New Line.03551710_03551713 Phases=2 bus1=03551710.1.3 bus2=03551713.1.3 Units=km Length=0.26944 Rmatrix=[0.71544            0.12194| 0.12194            0.71544|] Xmatrix=[  0.778            0.30523| 0.30523              0.778|] Cmatrix=[0                  0| 0                  0|]
New Line.03551710_03551714 Phases=2 bus1=03551710.1.3 bus2=03551714.1.3 Units=km Length=0.15179 Rmatrix=[0.71544            0.12194| 0.12194            0.71544|] Xmatrix=[  0.778            0.30523| 0.30523              0.778|] Cmatrix=[0                  0| 0                  0|]
New Line.035520_035524 Phases=3 bus1=035520.1.2.3 bus2=035524.1.2.3 Units=km Length=0.327569 Rmatrix=[ 0.233568972919    0.0596307278711    0.0596307278711| 0.0596307278711     0.233568972919    0.0596307278711| 0.0596307278711    0.0596307278711     0.233568972919|] Xmatrix=[0.647327410011     0.244956478421     0.244956478421| 0.244956478421     0.647327410011     0.244956478421| 0.244956478421     0.244956478421     0.647327410011|] Cmatrix=[0                  0                  0| 0                  0                  0| 0                  0                  0|]
New Line.035520_03552001 Phases=2 bus1=035520.1.3 bus2=03552001.1.3 Units=km Length=0.081138 Rmatrix=[ 1.57902931894     0.134662257635| 0.134662257635      1.57902931894|] Xmatrix=[0.891648687421     0.388671234933| 0.388671234933     0.891648687421|] Cmatrix=[0                  0| 0                  0|]
New Line.035524_035525 Phases=3 bus1=035524.1.2.3 bus2=035525.1.2.3 Units=km Length=0.066142 Rmatrix=[ 0.245469021499    0.0618227904811    0.0618227904811| 0.0618227904811     0.245469021499    0.0618227904811| 0.0618227904811    0.0618227904811     0.245469021499|] Xmatrix=[0.650380702428     0.246155487285     0.246155487285| 0.246155487285     0.650380702428     0.246155487285| 0.246155487285     0.246155487285     0.650380702428|] Cmatrix=[0                  0                  0| 0                  0                  0| 0                  0                  0|]
New Line.035525_03552501 Phases=3 bus1=035525.1.2.3 bus2=03552501.1.2.3 Units=km Length=0.04636 Rmatrix=[ 0.25131           0.062992           0.062992| 0.062992            0.25131           0.062992| 0.062992           0.062992            0.25131|] Xmatrix=[0.65223            0.24672            0.24672| 0.24672            0.65223            0.24672| 0.24672            0.24672            0.65223|] Cmatrix=[0                  0                  0| 0                  0                  0| 0                  0                  0|]
New Line.035525_035526 Phases=3 bus1=035525.1.2.3 bus2=035526.1.2.3 Units=km Length=0.021397 Rmatrix=[ 0.49377           0.097441           0.097441| 0.097441            0.49377           0.097441| 0.097441           0.097441            0.49377|] Xmatrix=[0.75372            0.28062            0.28062| 0.28062            0.75372            0.28062| 0.28062            0.28062            0.75372|] Cmatrix=[0                  0                  0| 0                  0                  0| 0                  0                  0|]
New Line.03552501_03552502 Phases=3 bus1=03552501.1.2.3 bus2=03552502.1.2.3 Units=km Length=0.053431 Rmatrix=[ 0.25131           0.062992           0.062992| 0.062992            0.25131           0.062992| 0.062992           0.062992            0.25131|] Xmatrix=[0.65223            0.24672            0.24672| 0.24672            0.65223            0.24672| 0.24672            0.24672            0.65223|] Cmatrix=[0                  0                  0| 0                  0                  0| 0                  0                  0|]
New Line.035526_03552601 Phases=3 bus1=035526.1.2.3 bus2=03552601.1.2.3 Units=km Length=0.12518 Rmatrix=[ 1.1475            0.13703            0.13703| 0.13703             1.1475            0.13703| 0.13703            0.13703             1.1475|] Xmatrix=[0.87981            0.35619            0.35619| 0.35619            0.87981            0.35619| 0.35619            0.35619            0.87981|] Cmatrix=[0                  0                  0| 0                  0                  0| 0                  0                  0|]
New Line.035526_035527a Phases=3 bus1=035526.1.2.3 bus2=035527a.1.2.3 Units=km Length=0.021702 Rmatrix=[0.94770148742      0.12476139342      0.12476139342| 0.12476139342     0.947701487421      0.12476139342| 0.12476139342      0.12476139342     0.947701487421|] Xmatrix=[0.806865913741     0.332510514238     0.332510514238| 0.332510514238     0.806865913741     0.332510514238| 0.332510514238     0.332510514238     0.806865913741|] Cmatrix=[0                  0                  0| 0                  0                  0| 0                  0                  0|]
New Line.03552502_03552503 Phases=3 bus1=03552502.1.2.3 bus2=03552503.1.2.3 Units=km Length=0.056053 Rmatrix=[  0.24441770164    0.0616123440315    0.0616123440315| 0.0616123440315      0.24441770164    0.0616123440315| 0.0616123440315    0.0616123440315      0.24441770164|] Xmatrix=[0.650047846681     0.246053880435     0.246053880435| 0.246053880435     0.650047846681     0.246053880435| 0.246053880435     0.246053880435     0.650047846681|] Cmatrix=[0                  0                  0| 0                  0                  0| 0                  0                  0|]
New Line.03552503_03552510 Phases=3 bus1=03552503.1.2.3 bus2=03552510.1.2.3 Units=km Length=0.094701 Rmatrix=[        0.25131    0.0629920000002    0.0629920000002| 0.0629920000002            0.25131    0.0629919999996| 0.0629920000002    0.0629919999996            0.25131|] Xmatrix=[0.652230000001            0.24672            0.24672|        0.24672            0.65223            0.24672|        0.24672            0.24672     0.652229999999|] Cmatrix=[0                  0                  0| 0                  0                  0| 0                  0                  0|]
New Line.03552503_03552504 Phases=3 bus1=03552503.1.2.3 bus2=03552504.1.2.3 Units=km Length=0.029566 Rmatrix=[0.590477116282     0.105991343435     0.105991343435| 0.105991343435     0.590477116282     0.105991343435| 0.105991343435     0.105991343435     0.590477116282|] Xmatrix=[0.765507248867     0.291656893053     0.291656893053| 0.291656893053     0.765507248867     0.291656893053| 0.291656893053     0.291656893053     0.765507248867|] Cmatrix=[0                  0                  0| 0                  0                  0| 0                  0                  0|]
New Line.03552510_03552514 Phases=3 bus1=03552510.1.2.3 bus2=03552514.1.2.3 Units=km Length=0.18535 Rmatrix=[        0.25131           0.062992    0.0629920000002|        0.062992            0.25131    0.0629919999999| 0.0629920000002    0.0629919999999            0.25131|] Xmatrix=[0.65223            0.24672            0.24672| 0.24672     0.652230000001     0.246719999999| 0.24672     0.246719999999            0.65223|] Cmatrix=[0                  0                  0| 0                  0                  0| 0                  0                  0|]
New Line.03552510_03552510a Phases=3 bus1=03552510.1.2.3 bus2=03552510a.1.2.3 Units=km Length=0.003048 Rmatrix=[0.12456            0.03762            0.03762| 0.03762            0.12456            0.03762| 0.03762            0.03762            0.12456|] Xmatrix=[ 0.6121            0.23447            0.23447| 0.23447             0.6121            0.23447| 0.23447            0.23447             0.6121|] Cmatrix=[0                  0                  0| 0                  0                  0| 0                  0                  0|]
New Line.03552504_03552509 Phases=1 bus1=03552504.1 bus2=03552509.1 Units=km Length=0.034747 Rmatrix=0.5935 Xmatrix=0.47277 Cmatrix=0
New Line.03552504_03552508 Phases=1 bus1=03552504.3 bus2=03552508.3 Units=km Length=0.087782 Rmatrix=0.5935 Xmatrix=0.47277 Cmatrix=0
New Line.03552514_03552546 Phases=3 bus1=03552514.1.2.3 bus2=03552546.1.2.3 Units=km Length=0.15554 Rmatrix=[ 0.25131           0.062992           0.062992| 0.062992            0.25131           0.062992| 0.062992           0.062992            0.25131|] Xmatrix=[0.65223            0.24672            0.24672| 0.24672            0.65223            0.24672| 0.24672            0.24672            0.65223|] Cmatrix=[0                  0                  0| 0                  0                  0| 0                  0                  0|]
New Line.03552514_03552515 Phases=3 bus1=03552514.1.2.3 bus2=03552515.1.2.3 Units=km Length=0.054864 Rmatrix=[0.615170555556           0.109615           0.109615|       0.109615     0.615170555556           0.109615|       0.109615           0.109615     0.615170555556|] Xmatrix=[0.773637777778     0.294687777778     0.294687777778| 0.294687777778     0.773637777778     0.294687777778| 0.294687777778     0.294687777778     0.773637777778|] Cmatrix=[0                  0                  0| 0                  0                  0| 0                  0                  0|]
New Line.03552546_03552547 Phases=3 bus1=03552546.1.2.3 bus2=03552547.1.2.3 Units=km Length=0.026457 Rmatrix=[ 0.25131           0.062992           0.062992| 0.062992            0.25131           0.062992| 0.062992           0.062992            0.25131|] Xmatrix=[0.65223            0.24672            0.24672| 0.24672            0.65223            0.24672| 0.24672            0.24672            0.65223|] Cmatrix=[0                  0                  0| 0                  0                  0| 0                  0                  0|]
New Line.03552515_03552518 Phases=2 bus1=03552515.1.2 bus2=03552518.1.2 Units=km Length=0.094488 Rmatrix=[1.0822              0.139|  0.139             1.0822|] Xmatrix=[0.83869            0.34853| 0.34853            0.83869|] Cmatrix=[0                  0| 0                  0|]
New Line.03552515_03552532 Phases=3 bus1=03552515.1.2.3 bus2=03552532.1.2.3 Units=km Length=0.067361 Rmatrix=[0.71544            0.12194            0.12194| 0.12194            0.71544            0.12194| 0.12194            0.12194            0.71544|] Xmatrix=[  0.778            0.30523            0.30523| 0.30523              0.778            0.30523| 0.30523            0.30523              0.778|] Cmatrix=[0                  0                  0| 0                  0                  0| 0                  0                  0|]
New Line.03552518_03552522 Phases=2 bus1=03552518.1.2 bus2=03552522.1.2 Units=km Length=0.060046 Rmatrix=[1.0822              0.139|  0.139             1.0822|] Xmatrix=[0.83869            0.34853| 0.34853            0.83869|] Cmatrix=[0                  0| 0                  0|]
New Line.03552518_03552521 Phases=1 bus1=03552518.2 bus2=03552521.2 Units=km Length=0.170078 Rmatrix=0.94324 Xmatrix=0.49016 Cmatrix=0
New Line.03552532_03552534a Phases=1 bus1=03552532.1 bus2=03552534a.1 Units=km Length=0.175568 Rmatrix=0.60925636 Xmatrix=0.7103448 Cmatrix=0
New Line.03552532_03552537 Phases=1 bus1=03552532.2 bus2=03552537.2 Units=km Length=0.01585 Rmatrix=0.53018 Xmatrix=0.48491 Cmatrix=0
New Line.03552532_03552541a Phases=1 bus1=03552532.3 bus2=03552541a.3 Units=km Length=0.027127 Rmatrix=0.48037761 Xmatrix=0.47285485 Cmatrix=0
New Line.03552522_03552523 Phases=1 bus1=03552522.2 bus2=03552523.2 Units=km Length=0.13198 Rmatrix=0.5935 Xmatrix=0.47277 Cmatrix=0
New Line.03552537_03552537a Phases=1 bus1=03552537.2 bus2=03552537a.2 Units=km Length=0.003048 Rmatrix=0.086942 Xmatrix=0.37762 Cmatrix=0
New Line.03552541a_03552544 Phases=1 bus1=03552541a.3 bus2=03552544.3 Units=km Length=0.189281 Rmatrix=0.53018 Xmatrix=0.48491 Cmatrix=0
New Line.03552534a_03552536 Phases=1 bus1=03552534a.1 bus2=03552536.1 Units=km Length=0.110948 Rmatrix=0.53018 Xmatrix=0.48491 Cmatrix=0
New Line.03552547_03552553 Phases=3 bus1=03552547.1.2.3 bus2=03552553.1.2.3 Units=km Length=0.0851 Rmatrix=[ 0.25131           0.062992           0.062992| 0.062992            0.25131           0.062992| 0.062992           0.062992            0.25131|] Xmatrix=[0.65223            0.24672            0.24672| 0.24672            0.65223            0.24672| 0.24672            0.24672            0.65223|] Cmatrix=[0                  0                  0| 0                  0                  0| 0                  0                  0|]
New Line.03552553_03552571 Phases=3 bus1=03552553.1.2.3 bus2=03552571.1.2.3 Units=km Length=0.059741 Rmatrix=[        0.25131    0.0629919999999           0.062992| 0.0629919999999            0.25131    0.0629920000001|        0.062992    0.0629920000001            0.25131|] Xmatrix=[0.65223            0.24672            0.24672| 0.24672            0.65223            0.24672| 0.24672            0.24672            0.65223|] Cmatrix=[0                  0                  0| 0                  0                  0| 0                  0                  0|]
New Line.03552553_03552555 Phases=2 bus1=03552553.2.3 bus2=03552555.2.3 Units=km Length=0.133502 Rmatrix=[ 1.60129670027     0.136147938308| 0.136147938308      1.60129670027|] Xmatrix=[0.895928473281     0.391031998172| 0.391031998172     0.895928473282|] Cmatrix=[0                  0| 0                  0|]
New Line.03552571_03552573 Phases=3 bus1=03552571.1.2.3 bus2=03552573.1.2.3 Units=km Length=0.069098 Rmatrix=[        0.25131           0.062992    0.0629919999998|        0.062992            0.25131    0.0629920000001| 0.0629919999998    0.0629920000001            0.25131|] Xmatrix=[0.65223            0.24672            0.24672| 0.24672            0.65223            0.24672| 0.24672            0.24672            0.65223|] Cmatrix=[0                  0                  0| 0                  0                  0| 0                  0                  0|]
New Line.03552571_03552571a Phases=2 bus1=03552571.2.3 bus2=03552571a.2.3 Units=km Length=0.003048 Rmatrix=[0.12456            0.03762| 0.03762            0.12456|] Xmatrix=[ 0.6121            0.23447| 0.23447             0.6121|] Cmatrix=[0                  0| 0                  0|]
New Line.03552573_03552574 Phases=3 bus1=03552573.1.2.3 bus2=03552574.1.2.3 Units=km Length=0.031821 Rmatrix=[ 0.25131           0.062992           0.062992| 0.062992            0.25131           0.062992| 0.062992           0.062992            0.25131|] Xmatrix=[0.65223            0.24672            0.24672| 0.24672            0.65223            0.24672| 0.24672            0.24672            0.65223|] Cmatrix=[0                  0                  0| 0                  0                  0| 0                  0                  0|]
New Line.03552571a_03552572 Phases=2 bus1=03552571a.2.3 bus2=03552572.2.3 Units=km Length=0.06861 Rmatrix=[ 1.1475            0.13703| 0.13703             1.1475|] Xmatrix=[0.87981            0.35619| 0.35619            0.87981|] Cmatrix=[0                  0| 0                  0|]
New Line.03552555_03552562 Phases=2 bus1=03552555.2.3 bus2=03552562.2.3 Units=km Length=0.116738 Rmatrix=[ 1.6358            0.13845| 0.13845             1.6358|] Xmatrix=[0.90256            0.39469| 0.39469            0.90256|] Cmatrix=[0                  0| 0                  0|]
New Line.03552555_03552570 Phases=2 bus1=03552555.2.3 bus2=03552570.2.3 Units=km Length=0.028194 Rmatrix=[ 1.6358            0.13845| 0.13845             1.6358|] Xmatrix=[0.90256            0.39469| 0.39469            0.90256|] Cmatrix=[0                  0| 0                  0|]
New Line.03552555_03552556 Phases=1 bus1=03552555.2 bus2=03552556.2 Units=km Length=0.065227 Rmatrix=0.56982899 Xmatrix=0.46832372 Cmatrix=0
New Line.03552562_03552563 Phases=2 bus1=03552562.2.3 bus2=03552563.2.3 Units=km Length=0.025298 Rmatrix=[ 1.6358            0.13845| 0.13845             1.6358|] Xmatrix=[0.90256            0.39469| 0.39469            0.90256|] Cmatrix=[0                  0| 0                  0|]
New Line.03552563_03552564 Phases=2 bus1=03552563.2.3 bus2=03552564.2.3 Units=km Length=0.067666 Rmatrix=[ 1.6358            0.13845| 0.13845             1.6358|] Xmatrix=[0.90256            0.39469| 0.39469            0.90256|] Cmatrix=[0                  0| 0                  0|]
New Line.03552564_03552566 Phases=2 bus1=03552564.2.3 bus2=03552566.2.3 Units=km Length=0.166055 Rmatrix=[ 1.6358            0.13845| 0.13845             1.6358|] Xmatrix=[0.90256            0.39469| 0.39469            0.90256|] Cmatrix=[0                  0| 0                  0|]
New Line.03552574_03552575 Phases=3 bus1=03552574.1.2.3 bus2=03552575.1.2.3 Units=km Length=0.079035 Rmatrix=[ 0.25131           0.062992           0.062992| 0.062992            0.25131           0.062992| 0.062992           0.062992            0.25131|] Xmatrix=[0.65223            0.24672            0.24672| 0.24672            0.65223            0.24672| 0.24672            0.24672            0.65223|] Cmatrix=[0                  0                  0| 0                  0                  0| 0                  0                  0|]
New Line.03552575_03552576 Phases=3 bus1=03552575.1.2.3 bus2=03552576.1.2.3 Units=km Length=0.028164 Rmatrix=[ 0.25131           0.062992           0.062992| 0.062992            0.25131           0.062992| 0.062992           0.062992            0.25131|] Xmatrix=[0.65223            0.24672            0.24672| 0.24672            0.65223            0.24672| 0.24672            0.24672            0.65223|] Cmatrix=[0                  0                  0| 0                  0                  0| 0                  0                  0|]
New Line.03552576_03552577 Phases=3 bus1=03552576.1.2.3 bus2=03552577.1.2.3 Units=km Length=0.045415 Rmatrix=[ 0.25131           0.062992           0.062992| 0.062992            0.25131           0.062992| 0.062992           0.062992            0.25131|] Xmatrix=[0.65223            0.24672            0.24672| 0.24672            0.65223            0.24672| 0.24672            0.24672            0.65223|] Cmatrix=[0                  0                  0| 0                  0                  0| 0                  0                  0|]
New Line.03552576_03552631 Phases=2 bus1=03552576.1.2 bus2=03552631.1.2 Units=km Length=0.0082906 Rmatrix=[1.0822              0.139|  0.139             1.0822|] Xmatrix=[0.83869            0.34853| 0.34853            0.83869|] Cmatrix=[0                  0| 0                  0|]
New Line.03552577_03552578 Phases=3 bus1=03552577.1.2.3 bus2=03552578.1.2.3 Units=km Length=0.04188 Rmatrix=[ 0.25131           0.062992           0.062992| 0.062992            0.25131           0.062992| 0.062992           0.062992            0.25131|] Xmatrix=[0.65223            0.24672            0.24672| 0.24672            0.65223            0.24672| 0.24672            0.24672            0.65223|] Cmatrix=[0                  0                  0| 0                  0                  0| 0                  0                  0|]
New Line.03552631_03552631a Phases=2 bus1=03552631.1.2 bus2=03552631a.1.2 Units=km Length=0.003048 Rmatrix=[0.12456            0.03762| 0.03762            0.12456|] Xmatrix=[ 0.6121            0.23447| 0.23447             0.6121|] Cmatrix=[0                  0| 0                  0|]
New Line.03552578_03552580 Phases=3 bus1=03552578.1.2.3 bus2=03552580.1.2.3 Units=km Length=0.035967 Rmatrix=[ 0.240568653766    0.0608418663775    0.0608418663775| 0.0608418663775     0.240568653766    0.0608418663775| 0.0608418663775    0.0608418663775     0.240568653766|] Xmatrix=[0.648829209275     0.245681881725     0.245681881725| 0.245681881725     0.648829209275     0.245681881725| 0.245681881725     0.245681881725     0.648829209275|] Cmatrix=[0                  0                  0| 0                  0                  0| 0                  0                  0|]
New Line.03552578_03552629 Phases=3 bus1=03552578.1.2.3 bus2=03552629.1.2.3 Units=km Length=0.07559 Rmatrix=[0.691614067469     0.118539982008     0.118539982008| 0.118539982008     0.691614067469     0.118539982008| 0.118539982008     0.118539982008     0.691614067469|] Xmatrix=[0.771310448472     0.302376759095     0.302376759095| 0.302376759095     0.771310448472     0.302376759095| 0.302376759095     0.302376759095     0.771310448472|] Cmatrix=[0                  0                  0| 0                  0                  0| 0                  0                  0|]
New Line.03552631a_03552632 Phases=2 bus1=03552631a.1.2 bus2=03552632.1.2 Units=km Length=0.055077 Rmatrix=[ 1.6358            0.13845| 0.13845             1.6358|] Xmatrix=[0.90256            0.39469| 0.39469     0.902559999999|] Cmatrix=[0                  0| 0                  0|]
New Line.03552631a_03552639 Phases=2 bus1=03552631a.1.2 bus2=03552639.1.2 Units=km Length=0.06221 Rmatrix=[        1.6358     0.138450000008| 0.138450000008      1.63580000004|] Xmatrix=[0.902560000002     0.394690000005| 0.394690000005     0.902559999994|] Cmatrix=[0                  0| 0                  0|]
New Line.03552580_03552581 Phases=3 bus1=03552580.1.2.3 bus2=03552581.1.2.3 Units=km Length=0.071628 Rmatrix=[0.12456            0.03762            0.03762| 0.03762            0.12456            0.03762| 0.03762            0.03762            0.12456|] Xmatrix=[ 0.6121            0.23447            0.23447| 0.23447             0.6121            0.23447| 0.23447            0.23447             0.6121|] Cmatrix=[0                  0                  0| 0                  0                  0| 0                  0                  0|]
New Line.03552581_03552584a Phases=3 bus1=03552581.1.2.3 bus2=03552584a.1.2.3 Units=km Length=0.131066 Rmatrix=[0.631949486671     0.112077236354     0.112077236354| 0.112077236354     0.631949486671     0.112077236354| 0.112077236354     0.112077236354     0.631949486671|] Xmatrix=[0.779162386279     0.296747231929     0.296747231929| 0.296747231929     0.779162386279     0.296747231929| 0.296747231929     0.296747231929     0.779162386279|] Cmatrix=[0                  0                  0| 0                  0                  0| 0                  0                  0|]
New Line.03552584a_03552585 Phases=3 bus1=03552584a.1.2.3 bus2=03552585.1.2.3 Units=km Length=0.012802 Rmatrix=[0.64403            0.11385            0.11385| 0.11385            0.64403            0.11385| 0.11385            0.11385            0.64403|] Xmatrix=[0.78314            0.29823            0.29823| 0.29823            0.78314            0.29823| 0.29823            0.29823            0.78314|] Cmatrix=[0                  0                  0| 0                  0                  0| 0                  0                  0|]
New Line.03552585_03552587 Phases=3 bus1=03552585.1.2.3 bus2=03552587.1.2.3 Units=km Length=0.096012 Rmatrix=[0.64403            0.11385            0.11385| 0.11385            0.64403            0.11385| 0.11385            0.11385            0.64403|] Xmatrix=[0.78314            0.29823            0.29823| 0.29823            0.78314            0.29823| 0.29823            0.29823            0.78314|] Cmatrix=[0                  0                  0| 0                  0                  0| 0                  0                  0|]
New Line.03552585_03552598 Phases=3 bus1=03552585.1.2.3 bus2=03552598.1.2.3 Units=km Length=0.026822 Rmatrix=[0.64403            0.11385            0.11385| 0.11385            0.64403            0.11385| 0.11385            0.11385            0.64403|] Xmatrix=[0.78314            0.29823            0.29823| 0.29823            0.78314            0.29823| 0.29823            0.29823            0.78314|] Cmatrix=[0                  0                  0| 0                  0                  0| 0                  0                  0|]
New Line.03552585_03552625 Phases=1 bus1=03552585.1 bus2=03552625.1 Units=km Length=0.137769 Rmatrix=0.5935 Xmatrix=0.47277 Cmatrix=0
New Line.03552585_03552622 Phases=1 bus1=03552585.3 bus2=03552622.3 Units=km Length=0.041453 Rmatrix=0.5935 Xmatrix=0.47277 Cmatrix=0
New Line.03552598_03552599 Phases=3 bus1=03552598.1.2.3 bus2=03552599.1.2.3 Units=km Length=0.11582 Rmatrix=[0.64403            0.11385            0.11385| 0.11385            0.64403            0.11385| 0.11385            0.11385            0.64403|] Xmatrix=[0.78314            0.29823            0.29823| 0.29823            0.78314            0.29823| 0.29823            0.29823            0.78314|] Cmatrix=[0                  0                  0| 0                  0                  0| 0                  0                  0|]
New Line.03552587_03552588 Phases=3 bus1=03552587.1.2.3 bus2=03552588.1.2.3 Units=km Length=0.039014 Rmatrix=[0.64403            0.11385            0.11385| 0.11385            0.64403            0.11385| 0.11385            0.11385            0.64403|] Xmatrix=[0.78314            0.29823            0.29823| 0.29823            0.78314            0.29823| 0.29823            0.29823            0.78314|] Cmatrix=[0                  0                  0| 0                  0                  0| 0                  0                  0|]
New Line.03552587_03552589 Phases=3 bus1=03552587.1.2.3 bus2=03552589.1.2.3 Units=km Length=0.077114 Rmatrix=[0.64403            0.11385            0.11385| 0.11385            0.64403            0.11385| 0.11385            0.11385            0.64403|] Xmatrix=[0.78314            0.29823            0.29823| 0.29823            0.78314            0.29823| 0.29823            0.29823            0.78314|] Cmatrix=[0                  0                  0| 0                  0                  0| 0                  0                  0|]
New Line.03552599_03552604 Phases=3 bus1=03552599.1.2.3 bus2=03552604.1.2.3 Units=km Length=0.18806 Rmatrix=[0.64403            0.11385            0.11385| 0.11385            0.64403            0.11385| 0.11385            0.11385            0.64403|] Xmatrix=[0.78314            0.29823            0.29823| 0.29823            0.78314            0.29823| 0.29823            0.29823            0.78314|] Cmatrix=[0                  0                  0| 0                  0                  0| 0                  0                  0|]
New Line.03552589_03552593 Phases=3 bus1=03552589.1.2.3 bus2=03552593.1.2.3 Units=km Length=0.029566 Rmatrix=[0.64403            0.11385            0.11385| 0.11385            0.64403            0.11385| 0.11385            0.11385            0.64403|] Xmatrix=[0.78314            0.29823            0.29823| 0.29823            0.78314            0.29823| 0.29823            0.29823            0.78314|] Cmatrix=[0                  0                  0| 0                  0                  0| 0                  0                  0|]
New Line.03552589_03552594 Phases=3 bus1=03552589.1.2.3 bus2=03552594.1.2.3 Units=km Length=0.015545 Rmatrix=[0.64403            0.11385            0.11385| 0.11385            0.64403            0.11385| 0.11385            0.11385            0.64403|] Xmatrix=[0.78314            0.29823            0.29823| 0.29823            0.78314            0.29823| 0.29823            0.29823            0.78314|] Cmatrix=[0                  0                  0| 0                  0                  0| 0                  0                  0|]
New Line.03552589_03552597 Phases=1 bus1=03552589.3 bus2=03552597.3 Units=km Length=0.109119 Rmatrix=0.5935 Xmatrix=0.47277 Cmatrix=0
New Line.03552604_03552606 Phases=2 bus1=03552604.1.3 bus2=03552606.1.3 Units=km Length=0.06922 Rmatrix=[ 1.13966924646     0.126303923288| 0.126303923288      1.13966924646|] Xmatrix=[0.831630628142     0.345878764808| 0.345878764808     0.831630628142|] Cmatrix=[0                  0| 0                  0|]
New Line.03552604_03552607 Phases=3 bus1=03552604.1.2.3 bus2=03552607.1.2.3 Units=km Length=0.039319 Rmatrix=[0.71544            0.12194            0.12194| 0.12194            0.71544            0.12194| 0.12194            0.12194            0.71544|] Xmatrix=[  0.778            0.30523            0.30523| 0.30523              0.778            0.30523| 0.30523            0.30523              0.778|] Cmatrix=[0                  0                  0| 0                  0                  0| 0                  0                  0|]
New Line.03552604_03552608 Phases=3 bus1=03552604.1.2.3 bus2=03552608.1.2.3 Units=km Length=0.27798 Rmatrix=[0.64403            0.11385            0.11385| 0.11385            0.64403            0.11385| 0.11385            0.11385            0.64403|] Xmatrix=[0.78314            0.29823            0.29823| 0.29823            0.78314            0.29823| 0.29823            0.29823            0.78314|] Cmatrix=[0                  0                  0| 0                  0                  0| 0                  0                  0|]
New Line.03552608_03552609 Phases=3 bus1=03552608.1.2.3 bus2=03552609.1.2.3 Units=km Length=0.22159 Rmatrix=[0.71544            0.12194            0.12194| 0.12194            0.71544            0.12194| 0.12194            0.12194            0.71544|] Xmatrix=[  0.778            0.30523            0.30523| 0.30523              0.778            0.30523| 0.30523            0.30523              0.778|] Cmatrix=[0                  0                  0| 0                  0                  0| 0                  0                  0|]
New Line.03552608_03552620 Phases=1 bus1=03552608.2 bus2=03552620.2 Units=km Length=0.26975 Rmatrix=0.5935 Xmatrix=0.47277 Cmatrix=0
New Line.035527a_035529 Phases=3 bus1=035527a.1.2.3 bus2=035529.1.2.3 Units=km Length=0.078151 Rmatrix=[1.0822              0.139              0.139|  0.139             1.0822              0.139|  0.139              0.139             1.0822|] Xmatrix=[0.83869            0.34853            0.34853| 0.34853            0.83869            0.34853| 0.34853            0.34853            0.83869|] Cmatrix=[0                  0                  0| 0                  0                  0| 0                  0                  0|]
New Line.03552609_03552610 Phases=3 bus1=03552609.1.2.3 bus2=03552610.1.2.3 Units=km Length=0.20361 Rmatrix=[0.71544            0.12194            0.12194| 0.12194            0.71544            0.12194| 0.12194            0.12194            0.71544|] Xmatrix=[  0.778            0.30523            0.30523| 0.30523              0.778            0.30523| 0.30523            0.30523              0.778|] Cmatrix=[0                  0                  0| 0                  0                  0| 0                  0                  0|]
New Line.03552609_03552617 Phases=1 bus1=03552609.3 bus2=03552617.3 Units=km Length=0.14051 Rmatrix=0.5935 Xmatrix=0.47277 Cmatrix=0
New Line.03552610_03552612 Phases=1 bus1=03552610.2 bus2=03552612.2 Units=km Length=0.10516 Rmatrix=0.5935 Xmatrix=0.47277 Cmatrix=0
New Line.03552610_03552611 Phases=1 bus1=03552610.3 bus2=03552611.3 Units=km Length=0.021031 Rmatrix=0.5935 Xmatrix=0.47277 Cmatrix=0
New Line.03552617_03552618 Phases=1 bus1=03552617.3 bus2=03552618.3 Units=km Length=0.088392 Rmatrix=0.5935 Xmatrix=0.47277 Cmatrix=0
New Line.03552620_03552621 Phases=1 bus1=03552620.2 bus2=03552621.2 Units=km Length=0.094488 Rmatrix=0.5935 Xmatrix=0.47277 Cmatrix=0
New Line.03552632_03552636 Phases=2 bus1=03552632.1.2 bus2=03552636.1.2 Units=km Length=0.325068 Rmatrix=[ 1.28964586665     0.133620661092| 0.133620661092      1.28964586665|] Xmatrix=[0.867137117311     0.363448229478| 0.363448229478     0.867137117311|] Cmatrix=[0                  0| 0                  0|]
New Line.03552639_03552641 Phases=2 bus1=03552639.1.2 bus2=03552641.1.2 Units=km Length=0.0381 Rmatrix=[ 1.6358            0.13845| 0.13845             1.6358|] Xmatrix=[0.90256            0.39469| 0.39469            0.90256|] Cmatrix=[0                  0| 0                  0|]
New Line.03552639_03552639a Phases=1 bus1=03552639.2 bus2=03552639a.2 Units=km Length=0.003048 Rmatrix=0.086942 Xmatrix=0.37762 Cmatrix=0
...